33
ejm_55
C 6.79000 5.69400 -0.18000
C 7.45700 6.55600 -1.04600
C 6.79600 7.09600 -2.14400
C 5.45100 6.76600 -2.39300
C 4.78200 5.90300 -1.50300
C 5.45900 5.37300 -0.41200
Cl 3.11100 5.49700 -1.76900
C 4.71100 7.29600 -3.56100
O 4.52500 6.56400 -4.51900
N 4.23800 8.55600 -3.49800
C 3.46400 9.25500 -4.43000
C 2.78900 8.69200 -5.53100
C 1.97000 9.50500 -6.30900
N 1.82800 10.79800 -6.03300
C 2.45300 11.37600 -5.00800
C 3.24400 10.60100 -4.15700
N 2.21200 12.72700 -4.73400
C 3.03800 13.58900 -4.08300
O 4.13500 13.26600 -3.66000
Cl 7.63900 8.19500 -3.18200
H 7.30700 5.27600 0.67100
H 8.49200 6.80700 -0.86600
H 4.94000 4.70500 0.25900
H 4.43400 9.12900 -2.68900
H 2.91100 7.64300 -5.75900
H 1.43900 9.08800 -7.15200
H 3.68700 11.05300 -3.28100
H 1.34700 13.15700 -5.03000
C 3.56400 15.99800 -3.52800
H 3.16300 17.00200 -3.67000
H 3.84400 15.86400 -2.48300
O 2.50100 14.99200 -3.88400
H 4.43600 15.85500 -4.16600
